@<TRIPOS>MOLECULE
SPC
   66    65     1     0     0
SMALL
bcc


@<TRIPOS>ATOM
      1 N1          -3.5190    11.1060   -27.0460 n2         1 SPC      -0.694000
      2 C1          -2.6640    10.2630   -27.8370 c3         1 SPC       0.027500
      3 C2          -1.3280    10.9800   -28.1820 c          1 SPC       0.318900
      4 O1          -0.2460    10.4240   -27.9920 o          1 SPC      -0.446100
      5 C3          -3.3530     9.7390   -29.1170 c3         1 SPC       0.179400
      6 O2          -3.0090     8.3950   -29.3650 os         1 SPC      -0.579200
      7 O3          -5.2270     7.4790   -30.3010 o          1 SPC      -0.819300
      8 O4          -3.3740     8.4230   -31.8540 os         1 SPC      -0.573200
      9 O5          -2.9110     6.3170   -30.6710 oh         1 SPC      -0.772400
     10 C4          -1.9880     8.7270   -31.8580 c3         1 SPC       0.176400
     11 C5          -1.4230     8.5330   -33.2700 c3         1 SPC      -0.068000
     12 C6          -2.2990    10.7180   -34.2520 c          1 SPC       0.628100
     13 O6          -0.1460     9.7440   -34.8930 oh         1 SPC      -0.619800
     14 N2          -2.7350    11.7610   -33.4720 ns         1 SPC      -0.537900
     15 O7          -2.9160    10.3760   -35.2850 o          1 SPC      -0.663100
     16 C7          -3.5540    11.5860   -32.3050 c3         1 SPC       0.079000
     17 C8          -4.6860    12.6000   -32.1390 c3         1 SPC      -0.154400
     18 C9          -6.0740    11.9870   -32.1000 c          1 SPC       0.572100
     19 P1          -3.8010     7.6240   -30.5330 p5         1 SPC       1.638500
     20 N3          -6.5550    11.5030   -30.9020 ns         1 SPC      -0.692900
     21 O8          -6.7350    11.8800   -33.1550 o          1 SPC      -0.847100
     22 C10         -7.1850    12.3640   -29.9390 c3         1 SPC       0.078000
     23 C11         -6.2120    13.2690   -29.1520 c3         1 SPC       0.073000
     24 C12         -1.0500     9.9310   -33.8160 c3         1 SPC       0.089100
     25 C13         -0.1650     7.6800   -33.2010 c3         1 SPC      -0.095100
     26 C14         -2.4510     7.8630   -34.1630 c3         1 SPC      -0.095100
     27 C15         -7.3390    15.3470   -29.8210 c          1 SPC       0.596100
     28 C16         -7.4850    16.1240   -31.1530 c3         1 SPC       0.090500
     29 C17         -6.4260    17.2260   -31.1530 c3         1 SPC       0.028700
     30 N4          -6.1910    14.6340   -29.6030 ns         1 SPC      -0.537900
     31 N5          -8.8310    16.6300   -31.3520 n8         1 SPC      -0.878800
     32 O9          -8.2790    15.3730   -28.9990 o          1 SPC      -0.671100
     33 S1          -5.0580    16.9130   -32.2380 sh         1 SPC      -0.484900
     34 H1          -4.4520    11.3090   -27.3750 hn         1 SPC       0.370800
     35 H2          -0.2530    10.8080   -28.1370 h4         1 SPC       0.173200
     36 H3          -2.3950     9.3430   -27.2240 h1         1 SPC       0.092700
     37 H4          -4.4700     9.8360   -29.0060 h1         1 SPC       0.072200
     38 H5          -2.9900    10.3580   -29.9840 h1         1 SPC       0.072200
     39 H6          -3.0630     5.7480   -31.4270 ho         1 SPC       0.473000
     40 H7          -1.8720     9.7960   -31.5250 h1         1 SPC       0.058700
     41 H8          -1.4800     8.0360   -31.1290 h1         1 SPC       0.058700
     42 H9          -2.5220    12.6880   -33.7620 hn         1 SPC       0.312500
     43 H10         -3.9770    10.5390   -32.3120 h1         1 SPC       0.068700
     44 H11         -2.8770    11.6780   -31.4060 h1         1 SPC       0.068700
     45 H12         -4.5430    13.1290   -31.1600 hc         1 SPC       0.042700
     46 H13         -4.6720    13.3790   -32.9470 hc         1 SPC       0.042700
     47 H14         -5.1970    15.6090   -32.4220 hs         1 SPC       0.308800
     48 H15         -7.9460    12.9970   -30.4790 h1         1 SPC       0.009700
     49 H16         -7.7150    11.7380   -29.1660 h1         1 SPC       0.009700
     50 H17         -6.5260    13.2490   -28.0670 h1         1 SPC       0.030200
     51 H18         -5.1730    12.8330   -29.2240 h1         1 SPC       0.030200
     52 H19         -0.5640    10.5290   -32.9940 h1         1 SPC       0.109700
     53 H20          0.6980     8.2900   -32.8390 hc         1 SPC       0.045700
     54 H21          0.0800     7.2770   -34.2120 hc         1 SPC       0.045700
     55 H22         -0.3300     6.8320   -32.4940 hc         1 SPC       0.045700
     56 H23         -2.0650     7.8190   -35.2100 hc         1 SPC       0.045700
     57 H24         -3.4060     8.4430   -34.1470 hc         1 SPC       0.045700
     58 H25         -2.6500     6.8200   -33.8160 hc         1 SPC       0.045700
     59 H26         -5.3100    15.0830   -29.6870 hn         1 SPC       0.357500
     60 H27         -7.1980    15.3760   -31.9590 h1         1 SPC       0.091700
     61 H28         -6.8840    18.2190   -31.4000 h1         1 SPC       0.078700
     62 H29         -5.9790    17.2840   -30.1270 h1         1 SPC       0.078700
     63 H30         -9.4950    15.8940   -31.2040 hn         1 SPC       0.347800
     64 H31         -9.0140    17.3820   -30.7170 hn         1 SPC       0.347800
     65 H32         -6.3000    10.5900   -30.6030 hn         1 SPC       0.243500
     66 H33          0.2960    10.5900   -35.0370 ho         1 SPC       0.427000
@<TRIPOS>BOND
     1     1     2 1   
     2     1    34 1   
     3     2     3 1   
     4     2     5 1   
     5     2    36 1   
     6     3     4 2   
     7     3    35 1   
     8     5     6 1   
     9     5    37 1   
    10     5    38 1   
    11     6    19 1   
    12     8    10 1   
    13     9    39 1   
    14    10    11 1   
    15    10    40 1   
    16    10    41 1   
    17    11    24 1   
    18    11    25 1   
    19    11    26 1   
    20    12    14 1   
    21    12    15 2   
    22    13    66 1   
    23    14    16 1   
    24    14    42 1   
    25    16    17 1   
    26    16    43 1   
    27    16    44 1   
    28    17    18 1   
    29    17    45 1   
    30    17    46 1   
    31    18    20 1   
    32    18    21 2   
    33     7    19 2   
    34     8    19 1   
    35     9    19 1   
    36    20    22 1   
    37    20    65 1   
    38    22    23 1   
    39    22    48 1   
    40    22    49 1   
    41    23    30 1   
    42    23    50 1   
    43    23    51 1   
    44    12    24 1   
    45    13    24 1   
    46    24    52 1   
    47    25    53 1   
    48    25    54 1   
    49    25    55 1   
    50    26    56 1   
    51    26    57 1   
    52    26    58 1   
    53    27    28 1   
    54    27    32 2   
    55    28    29 1   
    56    28    31 1   
    57    28    60 1   
    58    29    33 1   
    59    29    61 1   
    60    29    62 1   
    61    27    30 1   
    62    30    59 1   
    63    31    63 1   
    64    31    64 1   
    65    33    47 1   
@<TRIPOS>SUBSTRUCTURE
     1 SPC         1 TEMP              0 ****  ****    0 ROOT
